agentic_grid_tutorial_3h/data/greensboro_udt8894/Lines.dss
New Line.l(r:p1ulv1406-udt714lv) Units=km Length=0.0144039 bus1=udt714lv.1.2 bus2=p1ulv1406.1.2 switch=n enabled=y phases=2 Linecode=1P_UG_AL_1/0_Brenau_2

New Line.l(r:p1ulv1405-udm2984) Units=km Length=0.014762 bus1=udm2984.1.2 bus2=p1ulv1405.1.2 switch=n enabled=y phases=2 Linecode=1P_UG_AL_1/0_Brenau_2

New Line.l(r:p1ulv1435-udm2984) Units=km Length=0.0182278 bus1=udm2984.1.2 bus2=p1ulv1435.1.2 switch=n enabled=y phases=2 Linecode=1P_UG_AL_1/0_Brenau_2

New Line.l(r:p1ulv1434-udm2988) Units=km Length=0.015507300000000002 bus1=udm2988.1.2 bus2=p1ulv1434.1.2 switch=n enabled=y phases=2 Linecode=1P_UG_AL_1/0_Brenau_2

New Line.l(r:udm2984-udm2988) Units=km Length=0.00852879 bus1=udm2984.1.2 bus2=udm2988.1.2 switch=n enabled=y phases=2 Linecode=1P_UG_AL_1/0_Brenau_2

New Line.l(r:udm2984-udt714lv) Units=km Length=0.00954703 bus1=udt714lv.1.2 bus2=udm2984.1.2 switch=n enabled=y phases=2 Linecode=1P_UG_AL_1/0_Brenau_2

New Line.l(r:p1ulv1408-udm2986) Units=km Length=0.0143139 bus1=udm2986.1.2 bus2=p1ulv1408.1.2 switch=n enabled=y phases=2 Linecode=1P_UG_AL_1/0_Brenau_2

New Line.l(r:p1ulv1409-udm2987) Units=km Length=0.0129846 bus1=udm2987.1.2 bus2=p1ulv1409.1.2 switch=n enabled=y phases=2 Linecode=1P_UG_AL_1/0_Brenau_2

New Line.l(r:udm2986-udm2987) Units=km Length=0.00954703 bus1=udm2986.1.2 bus2=udm2987.1.2 switch=n enabled=y phases=2 Linecode=1P_UG_AL_1/0_Brenau_2

New Line.l(r:udm2986-udt714lv) Units=km Length=0.00953619 bus1=udt714lv.1.2 bus2=udm2986.1.2 switch=n enabled=y phases=2 Linecode=1P_UG_AL_1/0_Brenau_2

New Line.l(r:p1ulv1413-udt715lv) Units=km Length=0.026825100000000004 bus1=udt715lv.1.2 bus2=p1ulv1413.1.2 switch=n enabled=y phases=2 Linecode=1P_UG_AL_1/0_Brenau_2

New Line.l(r:p1ulv1414-udt715lv) Units=km Length=0.0285715 bus1=udt715lv.1.2 bus2=p1ulv1414.1.2 switch=n enabled=y phases=2 Linecode=1P_UG_AL_1/0_Brenau_2

New Line.l(r:p1ulv1415-udt715lv) Units=km Length=0.0264986 bus1=udt715lv.1.2 bus2=p1ulv1415.1.2 switch=n enabled=y phases=2 Linecode=1P_UG_AL_1/0_Brenau_2

New Line.l(r:p1ulv1419-udt715lv) Units=km Length=0.0157601 bus1=udt715lv.1.2 bus2=p1ulv1419.1.2 switch=n enabled=y phases=2 Linecode=1P_UG_AL_1/0_Brenau_2

New Line.l(r:p1ulv1420-udt715lv) Units=km Length=0.017830500000000003 bus1=udt715lv.1.2 bus2=p1ulv1420.1.2 switch=n enabled=y phases=2 Linecode=1P_UG_AL_1/0_Brenau_2

New Line.l(r:p1ulv1421-udt715lv) Units=km Length=0.0222164 bus1=udt715lv.1.2 bus2=p1ulv1421.1.2 switch=n enabled=y phases=2 Linecode=1P_UG_AL_1/0_Brenau_2

New Line.l(r:p1ulv1410-udm2990) Units=km Length=0.0131481 bus1=udm2990.1.2 bus2=p1ulv1410.1.2 switch=n enabled=y phases=2 Linecode=1P_UG_AL_1/0_Brenau_2

New Line.l(r:p1ulv1411-udm2990) Units=km Length=0.0141259 bus1=udm2990.1.2 bus2=p1ulv1411.1.2 switch=n enabled=y phases=2 Linecode=1P_UG_AL_1/0_Brenau_2

New Line.l(r:p1ulv1412-udm2990) Units=km Length=0.0179781 bus1=udm2990.1.2 bus2=p1ulv1412.1.2 switch=n enabled=y phases=2 Linecode=1P_UG_AL_1/0_Brenau_2

New Line.l(r:udm2990-udt715lv) Units=km Length=0.00799591 bus1=udt715lv.1.2 bus2=udm2990.1.2 switch=n enabled=y phases=2 Linecode=1P_UG_AL_1/0_Brenau_2

New Line.l(r:p1ulv1417-udm2996) Units=km Length=0.0134516 bus1=udm2996.1.2 bus2=p1ulv1417.1.2 switch=n enabled=y phases=2 Linecode=1P_UG_AL_1/0_Brenau_2

New Line.l(r:p1ulv1418-udm2996) Units=km Length=0.01306 bus1=udm2996.1.2 bus2=p1ulv1418.1.2 switch=n enabled=y phases=2 Linecode=1P_UG_AL_1/0_Brenau_2

New Line.l(r:udm2996-udt715lv) Units=km Length=0.00851536 bus1=udt715lv.1.2 bus2=udm2996.1.2 switch=n enabled=y phases=2 Linecode=1P_UG_AL_1/0_Brenau_2

New Line.l(r:p1ulv1431-udt716lv) Units=km Length=0.0117061 bus1=udt716lv.1.2 bus2=p1ulv1431.1.2 switch=n enabled=y phases=2 Linecode=1P_UG_AL_1/0_Brenau_2

New Line.l(r:p1ulv1428-udm3003) Units=km Length=0.0157421 bus1=udm3003.1.2 bus2=p1ulv1428.1.2 switch=n enabled=y phases=2 Linecode=1P_UG_AL_1/0_Brenau_2

New Line.l(r:p1ulv1430-udm3003) Units=km Length=0.0135999 bus1=udm3003.1.2 bus2=p1ulv1430.1.2 switch=n enabled=y phases=2 Linecode=1P_UG_AL_1/0_Brenau_2

New Line.l(r:p1ulv1422-udm3001) Units=km Length=0.0153001 bus1=udm3001.1.2 bus2=p1ulv1422.1.2 switch=n enabled=y phases=2 Linecode=1P_UG_AL_1/0_Brenau_2

New Line.l(r:p1ulv1423-udm3001) Units=km Length=0.0139626 bus1=udm3001.1.2 bus2=p1ulv1423.1.2 switch=n enabled=y phases=2 Linecode=1P_UG_AL_1/0_Brenau_2

New Line.l(r:udm3001-udm3003) Units=km Length=0.00846958 bus1=udm3003.1.2 bus2=udm3001.1.2 switch=n enabled=y phases=2 Linecode=1P_UG_AL_1/0_Brenau_2

New Line.l(r:udm3003-udt716lv) Units=km Length=0.00897366 bus1=udt716lv.1.2 bus2=udm3003.1.2 switch=n enabled=y phases=2 Linecode=1P_UG_AL_4/0_Sweetbriar_2

New Line.l(r:p1ulv1429-udm3004) Units=km Length=0.00887559 bus1=udm3004.1.2 bus2=p1ulv1429.1.2 switch=n enabled=y phases=2 Linecode=1P_UG_AL_1/0_Brenau_2

New Line.l(r:p1ulv1432-udm3004) Units=km Length=0.00769259 bus1=udm3004.1.2 bus2=p1ulv1432.1.2 switch=n enabled=y phases=2 Linecode=1P_UG_AL_1/0_Brenau_2

New Line.l(r:p1ulv1433-udm3004) Units=km Length=0.0137808 bus1=udm3004.1.2 bus2=p1ulv1433.1.2 switch=n enabled=y phases=2 Linecode=1P_UG_AL_1/0_Brenau_2

New Line.l(r:udm3004-udt716lv) Units=km Length=0.018121 bus1=udt716lv.1.2 bus2=udm3004.1.2 switch=n enabled=y phases=2 Linecode=1P_UG_AL_1/0_Brenau_2

New Line.l(r:p1ulv1425-udt717lv) Units=km Length=0.0117124 bus1=udt717lv.1.2 bus2=p1ulv1425.1.2 switch=n enabled=y phases=2 Linecode=1P_UG_AL_1/0_Brenau_2

New Line.l(r:p1ulv1427-udt717lv) Units=km Length=0.012257900000000002 bus1=udt717lv.1.2 bus2=p1ulv1427.1.2 switch=n enabled=y phases=2 Linecode=1P_UG_AL_1/0_Brenau_2

New Line.l(r:p1ulv1424-udm3009) Units=km Length=0.0128074 bus1=udm3009.1.2 bus2=p1ulv1424.1.2 switch=n enabled=y phases=2 Linecode=1P_UG_AL_1/0_Brenau_2

New Line.l(r:udm3009-udt717lv) Units=km Length=0.00612074 bus1=udt717lv.1.2 bus2=udm3009.1.2 switch=n enabled=y phases=2 Linecode=1P_UG_AL_1/0_Brenau_2

New Line.l(r:p1ulv1436-udt718lv) Units=km Length=0.0148715 bus1=udt718lv.1.2 bus2=p1ulv1436.1.2 switch=n enabled=y phases=2 Linecode=1P_UG_AL_1/0_Brenau_2

New Line.l(r:p1ulv1437-udt718lv) Units=km Length=0.00636347 bus1=udt718lv.1.2 bus2=p1ulv1437.1.2 switch=n enabled=y phases=2 Linecode=1P_UG_AL_1/0_Brenau_2

New Line.l(r:p1ulv1438-udt718lv) Units=km Length=0.0210062 bus1=udt718lv.1.2 bus2=p1ulv1438.1.2 switch=n enabled=y phases=2 Linecode=1P_UG_AL_1/0_Brenau_2

New Line.l(r:p1ulv1439-udt718lv) Units=km Length=0.0275325 bus1=udt718lv.1.2 bus2=p1ulv1439.1.2 switch=n enabled=y phases=2 Linecode=1P_UG_AL_1/0_Brenau_2

New Line.l(r:p1ulv1452-udt718lv) Units=km Length=0.0165229 bus1=udt718lv.1.2 bus2=p1ulv1452.1.2 switch=n enabled=y phases=2 Linecode=1P_UG_AL_1/0_Brenau_2

New Line.l(r:p1ulv1441-udm3016) Units=km Length=0.03663860000000001 bus1=udm3016.1.2 bus2=p1ulv1441.1.2 switch=n enabled=y phases=2 Linecode=1P_UG_AL_1/0_Brenau_2

New Line.l(r:p1ulv1450-udm3016) Units=km Length=0.0161874 bus1=udm3016.1.2 bus2=p1ulv1450.1.2 switch=n enabled=y phases=2 Linecode=1P_UG_AL_1/0_Brenau_2

New Line.l(r:udm3016-udt718lv) Units=km Length=0.0091332 bus1=udt718lv.1.2 bus2=udm3016.1.2 switch=n enabled=y phases=2 Linecode=1P_UG_AL_1/0_Brenau_2

New Line.l(r:p1ulv1445-udt719lv) Units=km Length=0.00726555 bus1=udt719lv.1.2 bus2=p1ulv1445.1.2 switch=n enabled=y phases=2 Linecode=1P_UG_AL_1/0_Brenau_2

New Line.l(r:p1ulv1446-udt719lv) Units=km Length=0.0147208 bus1=udt719lv.1.2 bus2=p1ulv1446.1.2 switch=n enabled=y phases=2 Linecode=1P_UG_AL_1/0_Brenau_2

New Line.l(r:p1ulv1447-udt719lv) Units=km Length=0.020876 bus1=udt719lv.1.2 bus2=p1ulv1447.1.2 switch=n enabled=y phases=2 Linecode=1P_UG_AL_1/0_Brenau_2

New Line.l(r:p1ulv1448-udt719lv) Units=km Length=0.025988 bus1=udt719lv.1.2 bus2=p1ulv1448.1.2 switch=n enabled=y phases=2 Linecode=1P_UG_AL_1/0_Brenau_2

New Line.l(r:p1ulv1443-udm3021) Units=km Length=0.0336273 bus1=udm3021.1.2 bus2=p1ulv1443.1.2 switch=n enabled=y phases=2 Linecode=1P_UG_AL_1/0_Brenau_2

New Line.l(r:p1ulv1444-udm3021) Units=km Length=0.0328871 bus1=udm3021.1.2 bus2=p1ulv1444.1.2 switch=n enabled=y phases=2 Linecode=1P_UG_AL_1/0_Brenau_2

New Line.l(r:p1ulv1477-udm3021) Units=km Length=0.00963872 bus1=udm3021.1.2 bus2=p1ulv1477.1.2 switch=n enabled=y phases=2 Linecode=1P_UG_AL_1/0_Brenau_2

New Line.l(r:p1ulv1440-udm3019) Units=km Length=0.0353832 bus1=udm3019.1.2 bus2=p1ulv1440.1.2 switch=n enabled=y phases=2 Linecode=1P_UG_AL_1/0_Brenau_2

New Line.l(r:p1ulv1442-udm3019) Units=km Length=0.0341723 bus1=udm3019.1.2 bus2=p1ulv1442.1.2 switch=n enabled=y phases=2 Linecode=1P_UG_AL_1/0_Brenau_2

New Line.l(r:udm3019-udm3021) Units=km Length=0.00884509 bus1=udm3021.1.2 bus2=udm3019.1.2 switch=n enabled=y phases=2 Linecode=1P_UG_AL_1/0_Brenau_2

New Line.l(r:udm3021-udt719lv) Units=km Length=0.00884509 bus1=udt719lv.1.2 bus2=udm3021.1.2 switch=n enabled=y phases=2 Linecode=1P_UG_AL_4/0_Sweetbriar_2

New Line.l(r:p1ulv1483-udm3031) Units=km Length=0.0104827 bus1=udm3031.1.2 bus2=p1ulv1483.1.2 switch=n enabled=y phases=2 Linecode=1P_UG_AL_1/0_Brenau_2

New Line.l(r:p1ulv1482-udm3030) Units=km Length=0.0185858 bus1=udm3030.1.2 bus2=p1ulv1482.1.2 switch=n enabled=y phases=2 Linecode=1P_UG_AL_1/0_Brenau_2

New Line.l(r:p1ulv1480-udm3028) Units=km Length=0.0257457 bus1=udm3028.1.2 bus2=p1ulv1480.1.2 switch=n enabled=y phases=2 Linecode=1P_UG_AL_1/0_Brenau_2

New Line.l(r:p1ulv1481-udm3028) Units=km Length=0.0223402 bus1=udm3028.1.2 bus2=p1ulv1481.1.2 switch=n enabled=y phases=2 Linecode=1P_UG_AL_1/0_Brenau_2

New Line.l(r:udm3028-udm3030) Units=km Length=0.008460210000000001 bus1=udm3030.1.2 bus2=udm3028.1.2 switch=n enabled=y phases=2 Linecode=1P_UG_AL_1/0_Brenau_2

New Line.l(r:udm3030-udm3031) Units=km Length=0.00884509 bus1=udm3031.1.2 bus2=udm3030.1.2 switch=n enabled=y phases=2 Linecode=1P_UG_AL_2/0_Converse_2

New Line.l(r:udm3031-udt719lv) Units=km Length=0.0177018 bus1=udt719lv.1.2 bus2=udm3031.1.2 switch=n enabled=y phases=2 Linecode=1P_UG_AL_4/0_Sweetbriar_2

New Line.l(r:p1ulv1473-udt720lv) Units=km Length=0.02093 bus1=udt720lv.1.2 bus2=p1ulv1473.1.2 switch=n enabled=y phases=2 Linecode=1P_UG_AL_1/0_Brenau_2

New Line.l(r:p1ulv1472-udm3035) Units=km Length=0.0188441 bus1=udm3035.1.2 bus2=p1ulv1472.1.2 switch=n enabled=y phases=2 Linecode=1P_UG_AL_1/0_Brenau_2

New Line.l(r:p1ulv1469-udm3033) Units=km Length=0.0153208 bus1=udm3033.1.2 bus2=p1ulv1469.1.2 switch=n enabled=y phases=2 Linecode=1P_UG_AL_1/0_Brenau_2

New Line.l(r:p1ulv1471-udm3033) Units=km Length=0.016878600000000004 bus1=udm3033.1.2 bus2=p1ulv1471.1.2 switch=n enabled=y phases=2 Linecode=1P_UG_AL_1/0_Brenau_2

New Line.l(r:udm3033-udm3035) Units=km Length=0.00724859 bus1=udm3035.1.2 bus2=udm3033.1.2 switch=n enabled=y phases=2 Linecode=1P_UG_AL_1/0_Brenau_2

New Line.l(r:udm3035-udt720lv) Units=km Length=0.00724859 bus1=udt720lv.1.2 bus2=udm3035.1.2 switch=n enabled=y phases=2 Linecode=1P_UG_AL_4/0_Sweetbriar_2

New Line.l(r:p1ulv1474-udm3037) Units=km Length=0.0183527 bus1=udm3037.1.2 bus2=p1ulv1474.1.2 switch=n enabled=y phases=2 Linecode=1P_UG_AL_1/0_Brenau_2

New Line.l(r:p1ulv1475-udm3038) Units=km Length=0.0167682 bus1=udm3038.1.2 bus2=p1ulv1475.1.2 switch=n enabled=y phases=2 Linecode=1P_UG_AL_1/0_Brenau_2

New Line.l(r:p1ulv1476-udm3038) Units=km Length=0.0155045 bus1=udm3038.1.2 bus2=p1ulv1476.1.2 switch=n enabled=y phases=2 Linecode=1P_UG_AL_1/0_Brenau_2

New Line.l(r:p1ulv1449-udm3032) Units=km Length=0.0121219 bus1=udm3032.1.2 bus2=p1ulv1449.1.2 switch=n enabled=y phases=2 Linecode=1P_UG_AL_1/0_Brenau_2

New Line.l(r:udm3032-udm3038) Units=km Length=0.00721268 bus1=udm3038.1.2 bus2=udm3032.1.2 switch=n enabled=y phases=2 Linecode=1P_UG_AL_1/0_Brenau_2

New Line.l(r:udm3037-udm3038) Units=km Length=0.0076067700000000005 bus1=udm3037.1.2 bus2=udm3038.1.2 switch=n enabled=y phases=2 Linecode=1P_UG_AL_1/0_Brenau_2

New Line.l(r:udm3037-udt720lv) Units=km Length=0.00761497 bus1=udt720lv.1.2 bus2=udm3037.1.2 switch=n enabled=y phases=2 Linecode=1P_UG_AL_4/0_Sweetbriar_2

New Line.l(r:p1ulv1453-udt721lv) Units=km Length=0.0195779 bus1=udt721lv.1.2 bus2=p1ulv1453.1.2 switch=n enabled=y phases=2 Linecode=1P_UG_AL_1/0_Brenau_2

New Line.l(r:p1ulv1454-udt721lv) Units=km Length=0.0159108 bus1=udt721lv.1.2 bus2=p1ulv1454.1.2 switch=n enabled=y phases=2 Linecode=1P_UG_AL_1/0_Brenau_2

New Line.l(r:p1ulv1455-udt721lv) Units=km Length=0.0142254 bus1=udt721lv.1.2 bus2=p1ulv1455.1.2 switch=n enabled=y phases=2 Linecode=1P_UG_AL_1/0_Brenau_2

New Line.l(r:p1ulv1462-udt721lv) Units=km Length=0.017639200000000004 bus1=udt721lv.1.2 bus2=p1ulv1462.1.2 switch=n enabled=y phases=2 Linecode=1P_UG_AL_1/0_Brenau_2

New Line.l(r:p1ulv1456-udm3043) Units=km Length=0.0116619 bus1=udm3043.1.2 bus2=p1ulv1456.1.2 switch=n enabled=y phases=2 Linecode=1P_UG_AL_1/0_Brenau_2

New Line.l(r:udm3043-udt721lv) Units=km Length=0.00974123 bus1=udt721lv.1.2 bus2=udm3043.1.2 switch=n enabled=y phases=2 Linecode=1P_UG_AL_1/0_Brenau_2

New Line.l(r:p1ulv1457-udm3044) Units=km Length=0.0121135 bus1=udm3044.1.2 bus2=p1ulv1457.1.2 switch=n enabled=y phases=2 Linecode=1P_UG_AL_1/0_Brenau_2

New Line.l(r:p1ulv1459-udm3044) Units=km Length=0.0129192 bus1=udm3044.1.2 bus2=p1ulv1459.1.2 switch=n enabled=y phases=2 Linecode=1P_UG_AL_1/0_Brenau_2

New Line.l(r:p1ulv1461-udm3044) Units=km Length=0.0136495 bus1=udm3044.1.2 bus2=p1ulv1461.1.2 switch=n enabled=y phases=2 Linecode=1P_UG_AL_1/0_Brenau_2

New Line.l(r:udm3044-udt721lv) Units=km Length=0.0091924 bus1=udt721lv.1.2 bus2=udm3044.1.2 switch=n enabled=y phases=2 Linecode=1P_UG_AL_4/0_Sweetbriar_2

New Line.l(r:p1ulv1464-udt722lv) Units=km Length=0.0131204 bus1=udt722lv.1.2 bus2=p1ulv1464.1.2 switch=n enabled=y phases=2 Linecode=1P_UG_AL_1/0_Brenau_2

New Line.l(r:p1ulv1465-udt722lv) Units=km Length=0.013097 bus1=udt722lv.1.2 bus2=p1ulv1465.1.2 switch=n enabled=y phases=2 Linecode=1P_UG_AL_1/0_Brenau_2

New Line.l(r:p1ulv1467-udt722lv) Units=km Length=0.0154145 bus1=udt722lv.1.2 bus2=p1ulv1467.1.2 switch=n enabled=y phases=2 Linecode=1P_UG_AL_1/0_Brenau_2

New Line.l(r:p1ulv1460-udm3048) Units=km Length=0.0130433 bus1=udm3048.1.2 bus2=p1ulv1460.1.2 switch=n enabled=y phases=2 Linecode=1P_UG_AL_1/0_Brenau_2

New Line.l(r:p1ulv1468-udm3048) Units=km Length=0.017634 bus1=udm3048.1.2 bus2=p1ulv1468.1.2 switch=n enabled=y phases=2 Linecode=1P_UG_AL_1/0_Brenau_2

New Line.l(r:udm3048-udt722lv) Units=km Length=0.00930128 bus1=udt722lv.1.2 bus2=udm3048.1.2 switch=n enabled=y phases=2 Linecode=1P_UG_AL_1/0_Brenau_2

New Line.l(r:p1ulv1463-udm3049) Units=km Length=0.0135261 bus1=udm3049.1.2 bus2=p1ulv1463.1.2 switch=n enabled=y phases=2 Linecode=1P_UG_AL_1/0_Brenau_2

New Line.l(r:udm3049-udt722lv) Units=km Length=0.00747974 bus1=udt722lv.1.2 bus2=udm3049.1.2 switch=n enabled=y phases=2 Linecode=1P_UG_AL_1/0_Brenau_2

New Line.l(r:p1ulv1488-udt723lv) Units=km Length=0.0282253 bus1=udt723lv.1.2 bus2=p1ulv1488.1.2 switch=n enabled=y phases=2 Linecode=1P_UG_AL_1/0_Brenau_2

New Line.l(r:p1ulv1489-udt723lv) Units=km Length=0.0313055 bus1=udt723lv.1.2 bus2=p1ulv1489.1.2 switch=n enabled=y phases=2 Linecode=1P_UG_AL_1/0_Brenau_2

New Line.l(r:p1ulv1478-udm3054) Units=km Length=0.0323238 bus1=udm3054.1.2 bus2=p1ulv1478.1.2 switch=n enabled=y phases=2 Linecode=1P_UG_AL_1/0_Brenau_2

New Line.l(r:p1ulv1479-udm3054) Units=km Length=0.0287395 bus1=udm3054.1.2 bus2=p1ulv1479.1.2 switch=n enabled=y phases=2 Linecode=1P_UG_AL_1/0_Brenau_2

New Line.l(r:udm3054-udt723lv) Units=km Length=0.0269241 bus1=udt723lv.1.2 bus2=udm3054.1.2 switch=n enabled=y phases=2 Linecode=1P_UG_AL_1/0_Brenau_2

New Line.l(r:p1ulv1486-udm3056) Units=km Length=0.0231148 bus1=udm3056.1.2 bus2=p1ulv1486.1.2 switch=n enabled=y phases=2 Linecode=1P_UG_AL_1/0_Brenau_2

New Line.l(r:p1ulv1487-udm3056) Units=km Length=0.025464000000000004 bus1=udm3056.1.2 bus2=p1ulv1487.1.2 switch=n enabled=y phases=2 Linecode=1P_UG_AL_1/0_Brenau_2

New Line.l(r:p1ulv1499-udm3060) Units=km Length=0.0165306 bus1=udm3060.1.2 bus2=p1ulv1499.1.2 switch=n enabled=y phases=2 Linecode=1P_UG_AL_1/0_Brenau_2

New Line.l(r:p1ulv1500-udm3060) Units=km Length=0.00857429 bus1=udm3060.1.2 bus2=p1ulv1500.1.2 switch=n enabled=y phases=2 Linecode=1P_UG_AL_1/0_Brenau_2

New Line.l(r:udm3056-udm3060) Units=km Length=0.0092274 bus1=udm3056.1.2 bus2=udm3060.1.2 switch=n enabled=y phases=2 Linecode=1P_UG_AL_1/0_Brenau_2

New Line.l(r:udm3056-udt723lv) Units=km Length=0.00923736 bus1=udt723lv.1.2 bus2=udm3056.1.2 switch=n enabled=y phases=2 Linecode=1P_UG_AL_2/0_Converse_2

New Line.l(r:p1ulv1484-udt724lv) Units=km Length=0.0131936 bus1=udt724lv.1.2 bus2=p1ulv1484.1.2 switch=n enabled=y phases=2 Linecode=1P_UG_AL_1/0_Brenau_2

New Line.l(r:p1ulv12044-udt724lv) Units=km Length=0.037601 bus1=udt724lv.1.2 bus2=p1ulv12044.1.2 switch=n enabled=y phases=2 Linecode=1P_UG_AL_1/0_Brenau_2

New Line.l(r:p1ulv12049-udt724lv) Units=km Length=0.013773400000000002 bus1=udt724lv.1.2 bus2=p1ulv12049.1.2 switch=n enabled=y phases=2 Linecode=1P_UG_AL_1/0_Brenau_2

New Line.l(r:p1ulv1485-udm3063) Units=km Length=0.0178944 bus1=udm3063.1.2 bus2=p1ulv1485.1.2 switch=n enabled=y phases=2 Linecode=1P_UG_AL_1/0_Brenau_2

New Line.l(r:p1ulv1501-udm3064) Units=km Length=0.0228162 bus1=udm3064.1.2 bus2=p1ulv1501.1.2 switch=n enabled=y phases=2 Linecode=1P_UG_AL_1/0_Brenau_2

New Line.l(r:p1ulv1502-udm3064) Units=km Length=0.0275328 bus1=udm3064.1.2 bus2=p1ulv1502.1.2 switch=n enabled=y phases=2 Linecode=1P_UG_AL_1/0_Brenau_2

New Line.l(r:udm3063-udm3064) Units=km Length=0.00699201 bus1=udm3063.1.2 bus2=udm3064.1.2 switch=n enabled=y phases=2 Linecode=1P_UG_AL_1/0_Brenau_2

New Line.l(r:udm3063-udt724lv) Units=km Length=0.0069892800000000005 bus1=udt724lv.1.2 bus2=udm3063.1.2 switch=n enabled=y phases=2 Linecode=1P_UG_AL_1/0_Brenau_2

New Line.l(r:p1ulv12050-udm3068) Units=km Length=0.0137993 bus1=udm3068.1.2 bus2=p1ulv12050.1.2 switch=n enabled=y phases=2 Linecode=1P_UG_AL_1/0_Brenau_2

New Line.l(r:p1ulv12051-udm3069) Units=km Length=0.0145734 bus1=udm3069.1.2 bus2=p1ulv12051.1.2 switch=n enabled=y phases=2 Linecode=1P_UG_AL_1/0_Brenau_2

New Line.l(r:udm3068-udm3069) Units=km Length=0.00730924 bus1=udm3068.1.2 bus2=udm3069.1.2 switch=n enabled=y phases=2 Linecode=1P_UG_AL_1/0_Brenau_2

New Line.l(r:udm3068-udt724lv) Units=km Length=0.00730083 bus1=udt724lv.1.2 bus2=udm3068.1.2 switch=n enabled=y phases=2 Linecode=1P_UG_AL_1/0_Brenau_2

New Line.l(r:p1ulv1490-udm3070) Units=km Length=0.00819524 bus1=udm3070.1.2 bus2=p1ulv1490.1.2 switch=n enabled=y phases=2 Linecode=1P_UG_AL_1/0_Brenau_2

New Line.l(r:p1ulv1491-udm3070) Units=km Length=0.0165983 bus1=udm3070.1.2 bus2=p1ulv1491.1.2 switch=n enabled=y phases=2 Linecode=1P_UG_AL_1/0_Brenau_2

New Line.l(r:p1ulv1492-udm3070) Units=km Length=0.0219807 bus1=udm3070.1.2 bus2=p1ulv1492.1.2 switch=n enabled=y phases=2 Linecode=1P_UG_AL_1/0_Brenau_2

New Line.l(r:p1ulv1493-udm3070) Units=km Length=0.0273325 bus1=udm3070.1.2 bus2=p1ulv1493.1.2 switch=n enabled=y phases=2 Linecode=1P_UG_AL_1/0_Brenau_2

New Line.l(r:p1ulv1494-udm3070) Units=km Length=0.0330674 bus1=udm3070.1.2 bus2=p1ulv1494.1.2 switch=n enabled=y phases=2 Linecode=1P_UG_AL_1/0_Brenau_2

New Line.l(r:udm3070-udt725lv) Units=km Length=0.008460210000000001 bus1=udt725lv.1.2 bus2=udm3070.1.2 switch=n enabled=y phases=2 Linecode=1P_UG_AL_4/0_Sweetbriar_2

New Line.l(r:p1ulv1498-udm3077) Units=km Length=0.0380619 bus1=udm3077.1.2 bus2=p1ulv1498.1.2 switch=n enabled=y phases=2 Linecode=1P_UG_AL_1/0_Brenau_2

New Line.l(r:p1ulv1497-udm3076) Units=km Length=0.0381387 bus1=udm3076.1.2 bus2=p1ulv1497.1.2 switch=n enabled=y phases=2 Linecode=1P_UG_AL_1/0_Brenau_2

New Line.l(r:p1ulv1495-udm3075) Units=km Length=0.0383798 bus1=udm3075.1.2 bus2=p1ulv1495.1.2 switch=n enabled=y phases=2 Linecode=1P_UG_AL_1/0_Brenau_2

New Line.l(r:udm3075-udm3076) Units=km Length=0.00923736 bus1=udm3076.1.2 bus2=udm3075.1.2 switch=n enabled=y phases=2 Linecode=1P_UG_AL_1/0_Brenau_2

New Line.l(r:udm3076-udm3077) Units=km Length=0.009226510000000002 bus1=udm3077.1.2 bus2=udm3076.1.2 switch=n enabled=y phases=2 Linecode=1P_UG_AL_1/0_Brenau_2

New Line.l(r:udm3077-udt725lv) Units=km Length=0.00923736 bus1=udt725lv.1.2 bus2=udm3077.1.2 switch=n enabled=y phases=2 Linecode=1P_UG_AL_2/0_Converse_2

New Line.l(r:p1ulv12045-udt726lv) Units=km Length=0.0272331 bus1=udt726lv.1.2 bus2=p1ulv12045.1.2 switch=n enabled=y phases=2 Linecode=1P_UG_AL_1/0_Brenau_2

New Line.l(r:p1ulv12046-udt726lv) Units=km Length=0.0227497 bus1=udt726lv.1.2 bus2=p1ulv12046.1.2 switch=n enabled=y phases=2 Linecode=1P_UG_AL_1/0_Brenau_2

New Line.l(r:p1ulv12047-udt726lv) Units=km Length=0.016009000000000002 bus1=udt726lv.1.2 bus2=p1ulv12047.1.2 switch=n enabled=y phases=2 Linecode=1P_UG_AL_1/0_Brenau_2

New Line.l(r:p1ulv12048-udt726lv) Units=km Length=0.00896822 bus1=udt726lv.1.2 bus2=p1ulv12048.1.2 switch=n enabled=y phases=2 Linecode=1P_UG_AL_1/0_Brenau_2

New Line.l(r:p1ulv12150-udt726lv) Units=km Length=0.0141029 bus1=udt726lv.1.2 bus2=p1ulv12150.1.2 switch=n enabled=y phases=2 Linecode=1P_UG_AL_1/0_Brenau_2

New Line.l(r:p1ulv1503-udm3078) Units=km Length=0.0409762 bus1=udm3078.1.2 bus2=p1ulv1503.1.2 switch=n enabled=y phases=2 Linecode=1P_UG_AL_1/0_Brenau_2

New Line.l(r:p1ulv12041-udm3078) Units=km Length=0.0415157 bus1=udm3078.1.2 bus2=p1ulv12041.1.2 switch=n enabled=y phases=2 Linecode=1P_UG_AL_1/0_Brenau_2

New Line.l(r:p1ulv12042-udm3078) Units=km Length=0.0426309 bus1=udm3078.1.2 bus2=p1ulv12042.1.2 switch=n enabled=y phases=2 Linecode=1P_UG_AL_1/0_Brenau_2

New Line.l(r:p1ulv12043-udm3078) Units=km Length=0.0443806 bus1=udm3078.1.2 bus2=p1ulv12043.1.2 switch=n enabled=y phases=2 Linecode=1P_UG_AL_1/0_Brenau_2

New Line.l(r:udm3078-udt726lv) Units=km Length=0.00801989 bus1=udt726lv.1.2 bus2=udm3078.1.2 switch=n enabled=y phases=2 Linecode=1P_UG_AL_2/0_Converse_2

New Line.l(r:p1ulv12152-udm3087) Units=km Length=0.014162 bus1=udm3087.1.2 bus2=p1ulv12152.1.2 switch=n enabled=y phases=2 Linecode=1P_UG_AL_1/0_Brenau_2

New Line.l(r:p1ulv12154-udm3088) Units=km Length=0.0149215 bus1=udm3088.1.2 bus2=p1ulv12154.1.2 switch=n enabled=y phases=2 Linecode=1P_UG_AL_1/0_Brenau_2

New Line.l(r:p1ulv12155-udm3088) Units=km Length=0.0147057 bus1=udm3088.1.2 bus2=p1ulv12155.1.2 switch=n enabled=y phases=2 Linecode=1P_UG_AL_1/0_Brenau_2

New Line.l(r:udm3087-udm3088) Units=km Length=0.008013720000000002 bus1=udm3087.1.2 bus2=udm3088.1.2 switch=n enabled=y phases=2 Linecode=1P_UG_AL_1/0_Brenau_2

New Line.l(r:udm3087-udt726lv) Units=km Length=0.00802776 bus1=udt726lv.1.2 bus2=udm3087.1.2 switch=n enabled=y phases=2 Linecode=1P_UG_AL_2/0_Converse_2

New Line.l(r:p1ulv7388-udt3342lv) Units=km Length=0.0496597 bus1=udt3342lv.1.2 bus2=p1ulv7388.1.2 switch=n enabled=y phases=2 Linecode=1P_UG_AL_1/0_Brenau_2

New Line.l(r:p1ulv16873-udt3342lv) Units=km Length=0.0195727 bus1=udt3342lv.1.2 bus2=p1ulv16873.1.2 switch=n enabled=y phases=2 Linecode=1P_UG_AL_1/0_Brenau_2

New Line.l(r:p1ulv21897-udm13150) Units=km Length=0.0190148 bus1=udm13150.1.2 bus2=p1ulv21897.1.2 switch=n enabled=y phases=2 Linecode=1P_UG_AL_1/0_Brenau_2

New Line.l(r:udm13150-udt3342lv) Units=km Length=0.00776457 bus1=udt3342lv.1.2 bus2=udm13150.1.2 switch=n enabled=y phases=2 Linecode=1P_UG_AL_1/0_Brenau_2

New Line.l(r:p1ulv10115-udt4713lv) Units=km Length=0.025729 bus1=udt4713lv.1.2 bus2=p1ulv10115.1.2 switch=n enabled=y phases=2 Linecode=1P_OH_AL_2/0_Rucina_2

New Line.l(r:p1ulv10111-udm17843) Units=km Length=0.024509200000000002 bus1=udm17843.1.2 bus2=p1ulv10111.1.2 switch=n enabled=y phases=2 Linecode=1P_OH_AL_2/0_Rucina_2

New Line.l(r:udm17843-udt4713lv) Units=km Length=0.0091505 bus1=udt4713lv.1.2 bus2=udm17843.1.2 switch=n enabled=y phases=2 Linecode=1P_OH_AL_2/0_Rucina_2

New Line.l(r:p1ulv13946-udt4714lv) Units=km Length=0.0191982 bus1=udt4714lv.1.2 bus2=p1ulv13946.1.2 switch=n enabled=y phases=2 Linecode=1P_OH_AL_2/0_Rucina_2

New Line.l(r:p1ulv34353-udt4714lv) Units=km Length=0.023539 bus1=udt4714lv.1.2 bus2=p1ulv34353.1.2 switch=n enabled=y phases=2 Linecode=1P_OH_AL_2/0_Rucina_2

New Line.l(r:p1ulv10112-udm17845) Units=km Length=0.0208119 bus1=udm17845.1.2 bus2=p1ulv10112.1.2 switch=n enabled=y phases=2 Linecode=1P_OH_AL_2/0_Rucina_2

New Line.l(r:udm17845-udt4714lv) Units=km Length=0.012726300000000001 bus1=udt4714lv.1.2 bus2=udm17845.1.2 switch=n enabled=y phases=2 Linecode=1P_OH_AL_2/0_Rucina_2

New Line.l(r:p1ulv18382-udm17847) Units=km Length=0.0236791 bus1=udm17847.1.2 bus2=p1ulv18382.1.2 switch=n enabled=y phases=2 Linecode=1P_OH_AL_2/0_Rucina_2

New Line.l(r:p1ulv27620-udm17847) Units=km Length=0.0197408 bus1=udm17847.1.2 bus2=p1ulv27620.1.2 switch=n enabled=y phases=2 Linecode=1P_OH_AL_2/0_Rucina_2

New Line.l(r:udm17847-udt4714lv) Units=km Length=0.0183849 bus1=udt4714lv.1.2 bus2=udm17847.1.2 switch=n enabled=y phases=2 Linecode=1P_OH_AL_2/0_Rucina_2

New Line.l(r:p1ulv10113-udt4715lv) Units=km Length=0.0205877 bus1=udt4715lv.1.2 bus2=p1ulv10113.1.2 switch=n enabled=y phases=2 Linecode=1P_OH_AL_2/0_Rucina_2

New Line.l(r:p1ulv19873-udt4715lv) Units=km Length=0.0217819 bus1=udt4715lv.1.2 bus2=p1ulv19873.1.2 switch=n enabled=y phases=2 Linecode=1P_OH_AL_2/0_Rucina_2

New Line.l(r:p1ulv23761-udt4716lv) Units=km Length=0.0190774 bus1=udt4716lv.1.2 bus2=p1ulv23761.1.2 switch=n enabled=y phases=2 Linecode=1P_OH_AL_2/0_Rucina_2

New Line.l(r:p1ulv10114-udm17852) Units=km Length=0.0209464 bus1=udm17852.1.2 bus2=p1ulv10114.1.2 switch=n enabled=y phases=2 Linecode=1P_OH_AL_2/0_Rucina_2

New Line.l(r:p1ulv20715-udm17852) Units=km Length=0.02018 bus1=udm17852.1.2 bus2=p1ulv20715.1.2 switch=n enabled=y phases=2 Linecode=1P_OH_AL_2/0_Rucina_2

New Line.l(r:udm17852-udt4716lv) Units=km Length=0.00894162 bus1=udt4716lv.1.2 bus2=udm17852.1.2 switch=n enabled=y phases=2 Linecode=1P_OH_AL_2/0_Rucina_2

New Line.l(r:p1ulv10116-udm17855) Units=km Length=0.018977500000000005 bus1=udm17855.1.2 bus2=p1ulv10116.1.2 switch=n enabled=y phases=2 Linecode=1P_OH_AL_2/0_Rucina_2

New Line.l(r:udm17855-udt4717lv) Units=km Length=0.0234115 bus1=udt4717lv.1.2 bus2=udm17855.1.2 switch=n enabled=y phases=2 Linecode=1P_OH_AL_2/0_Rucina_2

New Line.l(r:p1ulv13689-udm17856) Units=km Length=0.0250532 bus1=udm17856.1.2 bus2=p1ulv13689.1.2 switch=n enabled=y phases=2 Linecode=1P_OH_AL_2/0_Rucina_2

New Line.l(r:udm17856-udt4717lv) Units=km Length=0.0345354 bus1=udt4717lv.1.2 bus2=udm17856.1.2 switch=n enabled=y phases=2 Linecode=1P_OH_AL_4/0_Zuzara_2

New Line.l(r:p1ulv10117-udt4718lv) Units=km Length=0.0200446 bus1=udt4718lv.1.2 bus2=p1ulv10117.1.2 switch=n enabled=y phases=2 Linecode=1P_OH_AL_2/0_Rucina_2

New Line.l(r:p1ulv24791-udt4718lv) Units=km Length=0.022589200000000004 bus1=udt4718lv.1.2 bus2=p1ulv24791.1.2 switch=n enabled=y phases=2 Linecode=1P_OH_AL_2/0_Rucina_2

New Line.l(r:p1ulv21937-udm17859) Units=km Length=0.0220514 bus1=udm17859.1.2 bus2=p1ulv21937.1.2 switch=n enabled=y phases=2 Linecode=1P_OH_AL_2/0_Rucina_2

New Line.l(r:p1ulv23510-udm17861) Units=km Length=0.0179076 bus1=udm17861.1.2 bus2=p1ulv23510.1.2 switch=n enabled=y phases=2 Linecode=1P_OH_AL_2/0_Rucina_2

New Line.l(r:p1ulv35657-udm17864) Units=km Length=0.021579500000000005 bus1=udm17864.1.2 bus2=p1ulv35657.1.2 switch=n enabled=y phases=2 Linecode=1P_OH_AL_2/0_Rucina_2

New Line.l(r:udm17861-udm17864) Units=km Length=0.0114109 bus1=udm17861.1.2 bus2=udm17864.1.2 switch=n enabled=y phases=2 Linecode=1P_OH_AL_2/0_Rucina_2

New Line.l(r:udm17859-udm17861) Units=km Length=0.0114109 bus1=udm17859.1.2 bus2=udm17861.1.2 switch=n enabled=y phases=2 Linecode=1P_OH_AL_2/0_Rucina_2

New Line.l(r:udm17859-udt4718lv) Units=km Length=0.018116 bus1=udt4718lv.1.2 bus2=udm17859.1.2 switch=n enabled=y phases=2 Linecode=1P_OH_AL_2/0_Rucina_2

New Line.l(r:p1ulv30938-udm17863) Units=km Length=0.0203327 bus1=udm17863.1.2 bus2=p1ulv30938.1.2 switch=n enabled=y phases=2 Linecode=1P_OH_AL_2/0_Rucina_2

New Line.l(r:p1ulv35920-udm17863) Units=km Length=0.0182702 bus1=udm17863.1.2 bus2=p1ulv35920.1.2 switch=n enabled=y phases=2 Linecode=1P_OH_AL_2/0_Rucina_2

New Line.l(r:p1ulv13859-udm17858) Units=km Length=0.0195532 bus1=udm17858.1.2 bus2=p1ulv13859.1.2 switch=n enabled=y phases=2 Linecode=1P_OH_AL_2/0_Rucina_2

New Line.l(r:p1ulv22355-udm17858) Units=km Length=0.0203312 bus1=udm17858.1.2 bus2=p1ulv22355.1.2 switch=n enabled=y phases=2 Linecode=1P_OH_AL_2/0_Rucina_2

New Line.l(r:udm17858-udm17863) Units=km Length=0.03430090000000001 bus1=udm17863.1.2 bus2=udm17858.1.2 switch=n enabled=y phases=2 Linecode=1P_OH_AL_4/0_Zuzara_2

New Line.l(r:udm17863-udt4718lv) Units=km Length=0.0171505 bus1=udt4718lv.1.2 bus2=udm17863.1.2 switch=n enabled=y phases=2 Linecode=1P_OH_AL_2/0_Rucina_2

New Line.l(r:p1ulv25564-udt4719lv) Units=km Length=0.0201282 bus1=udt4719lv.1.2 bus2=p1ulv25564.1.2 switch=n enabled=y phases=2 Linecode=1P_OH_AL_2/0_Rucina_2

New Line.l(r:p1ulv30896-udt4719lv) Units=km Length=0.01909 bus1=udt4719lv.1.2 bus2=p1ulv30896.1.2 switch=n enabled=y phases=2 Linecode=1P_OH_AL_2/0_Rucina_2

New Line.l(r:p1ulv10118-udm17866) Units=km Length=0.0227974 bus1=udm17866.1.2 bus2=p1ulv10118.1.2 switch=n enabled=y phases=2 Linecode=1P_OH_AL_2/0_Rucina_2

New Line.l(r:udm17866-udt4719lv) Units=km Length=0.0194807 bus1=udt4719lv.1.2 bus2=udm17866.1.2 switch=n enabled=y phases=2 Linecode=1P_OH_AL_2/0_Rucina_2

New Line.l(r:p1ulv10119-udt4720lv) Units=km Length=0.018905600000000005 bus1=udt4720lv.1.2 bus2=p1ulv10119.1.2 switch=n enabled=y phases=2 Linecode=1P_OH_AL_2/0_Rucina_2

New Line.l(r:p1ulv17434-udt4720lv) Units=km Length=0.0230579 bus1=udt4720lv.1.2 bus2=p1ulv17434.1.2 switch=n enabled=y phases=2 Linecode=1P_OH_AL_2/0_Rucina_2

New Line.l(r:p1ulv31031-udt4720lv) Units=km Length=0.0214949 bus1=udt4720lv.1.2 bus2=p1ulv31031.1.2 switch=n enabled=y phases=2 Linecode=1P_OH_AL_2/0_Rucina_2

New Line.l(r:p1ulv10126-udt4721lv) Units=km Length=0.0217061 bus1=udt4721lv.1.2 bus2=p1ulv10126.1.2 switch=n enabled=y phases=2 Linecode=1P_OH_AL_2/0_Rucina_2

New Line.l(r:p1ulv18192-udt4721lv) Units=km Length=0.019391 bus1=udt4721lv.1.2 bus2=p1ulv18192.1.2 switch=n enabled=y phases=2 Linecode=1P_OH_AL_2/0_Rucina_2

New Line.l(r:p1ulv13096-udm17874) Units=km Length=0.019716400000000002 bus1=udm17874.1.2 bus2=p1ulv13096.1.2 switch=n enabled=y phases=2 Linecode=1P_OH_AL_2/0_Rucina_2

New Line.l(r:p1ulv10120-udm17872) Units=km Length=0.021221400000000005 bus1=udm17872.1.2 bus2=p1ulv10120.1.2 switch=n enabled=y phases=2 Linecode=1P_OH_AL_2/0_Rucina_2

New Line.l(r:udm17872-udm17874) Units=km Length=0.0164602 bus1=udm17874.1.2 bus2=udm17872.1.2 switch=n enabled=y phases=2 Linecode=1P_OH_AL_2/0_Rucina_2

New Line.l(r:udm17874-udt4721lv) Units=km Length=0.0164602 bus1=udt4721lv.1.2 bus2=udm17874.1.2 switch=n enabled=y phases=2 Linecode=1P_OH_AL_2/0_Rucina_2

New Line.l(r:p1ulv10121-udt4722lv) Units=km Length=0.019921900000000003 bus1=udt4722lv.1.2 bus2=p1ulv10121.1.2 switch=n enabled=y phases=2 Linecode=1P_OH_AL_2/0_Rucina_2

New Line.l(r:p1ulv13483-udt4722lv) Units=km Length=0.015498 bus1=udt4722lv.1.2 bus2=p1ulv13483.1.2 switch=n enabled=y phases=2 Linecode=1P_OH_AL_2/0_Rucina_2

New Line.l(r:p1ulv15609-udm17878) Units=km Length=0.0204879 bus1=udm17878.1.2 bus2=p1ulv15609.1.2 switch=n enabled=y phases=2 Linecode=1P_OH_AL_2/0_Rucina_2

New Line.l(r:udm17878-udt4722lv) Units=km Length=0.0136065 bus1=udt4722lv.1.2 bus2=udm17878.1.2 switch=n enabled=y phases=2 Linecode=1P_OH_AL_2/0_Rucina_2

New Line.l(r:p1ulv10122-udm17879) Units=km Length=0.0191385 bus1=udm17879.1.2 bus2=p1ulv10122.1.2 switch=n enabled=y phases=2 Linecode=1P_OH_AL_2/0_Rucina_2

New Line.l(r:udm17879-udt4723lv) Units=km Length=0.0171366 bus1=udt4723lv.1.2 bus2=udm17879.1.2 switch=n enabled=y phases=2 Linecode=1P_OH_AL_2/0_Rucina_2

New Line.l(r:p1ulv10125-udm17880) Units=km Length=0.0223665 bus1=udm17880.1.2 bus2=p1ulv10125.1.2 switch=n enabled=y phases=2 Linecode=1P_OH_AL_2/0_Rucina_2

New Line.l(r:udm17880-udt4723lv) Units=km Length=0.0171427 bus1=udt4723lv.1.2 bus2=udm17880.1.2 switch=n enabled=y phases=2 Linecode=1P_OH_AL_2/0_Rucina_2

New Line.l(r:p1ulv10124-udt4725lv) Units=km Length=0.0182701 bus1=udt4725lv.1.2 bus2=p1ulv10124.1.2 switch=n enabled=y phases=2 Linecode=1P_OH_AL_2/0_Rucina_2

New Line.l(r:p1ulv21619-udm17885) Units=km Length=0.0210016 bus1=udm17885.1.2 bus2=p1ulv21619.1.2 switch=n enabled=y phases=2 Linecode=1P_OH_AL_2/0_Rucina_2

New Line.l(r:udm17885-udt4725lv) Units=km Length=0.0171136 bus1=udt4725lv.1.2 bus2=udm17885.1.2 switch=n enabled=y phases=2 Linecode=1P_OH_AL_2/0_Rucina_2

New Line.l(r:p1ulv10695-udt4885lv) Units=km Length=0.015184 bus1=udt4885lv.1.2 bus2=p1ulv10695.1.2 switch=n enabled=y phases=2 Linecode=1P_UG_AL_1/0_Brenau_2

New Line.l(r:p1ulv12253-udt4885lv) Units=km Length=0.0150722 bus1=udt4885lv.1.2 bus2=p1ulv12253.1.2 switch=n enabled=y phases=2 Linecode=1P_UG_AL_1/0_Brenau_2

New Line.l(r:p1ulv10692-udm18528) Units=km Length=0.0131059 bus1=udm18528.1.2 bus2=p1ulv10692.1.2 switch=n enabled=y phases=2 Linecode=1P_UG_AL_1/0_Brenau_2

New Line.l(r:udm18528-udt4885lv) Units=km Length=0.0099703 bus1=udt4885lv.1.2 bus2=udm18528.1.2 switch=n enabled=y phases=2 Linecode=1P_UG_AL_1/0_Brenau_2

New Line.l(r:p1ulv10696-udm18530) Units=km Length=0.0115844 bus1=udm18530.1.2 bus2=p1ulv10696.1.2 switch=n enabled=y phases=2 Linecode=1P_UG_AL_1/0_Brenau_2

New Line.l(r:p1ulv12254-udm18530) Units=km Length=0.01453 bus1=udm18530.1.2 bus2=p1ulv12254.1.2 switch=n enabled=y phases=2 Linecode=1P_UG_AL_1/0_Brenau_2

New Line.l(r:p1ulv10679-udm18527) Units=km Length=0.0141203 bus1=udm18527.1.2 bus2=p1ulv10679.1.2 switch=n enabled=y phases=2 Linecode=1P_UG_AL_1/0_Brenau_2

New Line.l(r:udm18527-udm18530) Units=km Length=0.0099703 bus1=udm18530.1.2 bus2=udm18527.1.2 switch=n enabled=y phases=2 Linecode=1P_UG_AL_1/0_Brenau_2

New Line.l(r:udm18530-udt4885lv) Units=km Length=0.0099703 bus1=udt4885lv.1.2 bus2=udm18530.1.2 switch=n enabled=y phases=2 Linecode=1P_UG_AL_4/0_Sweetbriar_2

New Line.l(r:p1ulv10683-udt4886lv) Units=km Length=0.0155652 bus1=udt4886lv.1.2 bus2=p1ulv10683.1.2 switch=n enabled=y phases=2 Linecode=1P_UG_AL_1/0_Brenau_2

New Line.l(r:p1ulv10681-udm18534) Units=km Length=0.0145896 bus1=udm18534.1.2 bus2=p1ulv10681.1.2 switch=n enabled=y phases=2 Linecode=1P_UG_AL_1/0_Brenau_2

New Line.l(r:p1ulv10680-udm18533) Units=km Length=0.0151801 bus1=udm18533.1.2 bus2=p1ulv10680.1.2 switch=n enabled=y phases=2 Linecode=1P_UG_AL_1/0_Brenau_2

New Line.l(r:p1ulv12091-udm18533) Units=km Length=0.0179168 bus1=udm18533.1.2 bus2=p1ulv12091.1.2 switch=n enabled=y phases=2 Linecode=1P_UG_AL_1/0_Brenau_2

New Line.l(r:udm18533-udm18534) Units=km Length=0.0128029 bus1=udm18534.1.2 bus2=udm18533.1.2 switch=n enabled=y phases=2 Linecode=1P_UG_AL_2/0_Converse_2

New Line.l(r:udm18534-udt4886lv) Units=km Length=0.00823411 bus1=udt4886lv.1.2 bus2=udm18534.1.2 switch=n enabled=y phases=2 Linecode=1P_UG_AL_4/0_Sweetbriar_2

New Line.l(r:p1ulv12106-udm18537) Units=km Length=0.010625900000000002 bus1=udm18537.1.2 bus2=p1ulv12106.1.2 switch=n enabled=y phases=2 Linecode=1P_UG_AL_1/0_Brenau_2

New Line.l(r:udm18537-udt4886lv) Units=km Length=0.0420986 bus1=udt4886lv.1.2 bus2=udm18537.1.2 switch=n enabled=y phases=2 Linecode=1P_UG_AL_1/0_Brenau_2

New Line.l(r:p1ulv10684-udt4887lv) Units=km Length=0.018863900000000003 bus1=udt4887lv.1.2 bus2=p1ulv10684.1.2 switch=n enabled=y phases=2 Linecode=1P_OH_AL_2/0_Rucina_2

New Line.l(r:p1ulv10685-udt4887lv) Units=km Length=0.0169132 bus1=udt4887lv.1.2 bus2=p1ulv10685.1.2 switch=n enabled=y phases=2 Linecode=1P_OH_AL_2/0_Rucina_2

New Line.l(r:p1ulv10687-udt4887lv) Units=km Length=0.0174662 bus1=udt4887lv.1.2 bus2=p1ulv10687.1.2 switch=n enabled=y phases=2 Linecode=1P_OH_AL_2/0_Rucina_2

New Line.l(r:p1ulv10688-udt4887lv) Units=km Length=0.0195587 bus1=udt4887lv.1.2 bus2=p1ulv10688.1.2 switch=n enabled=y phases=2 Linecode=1P_OH_AL_2/0_Rucina_2

New Line.l(r:p1ulv12242-udt4887lv) Units=km Length=0.0149398 bus1=udt4887lv.1.2 bus2=p1ulv12242.1.2 switch=n enabled=y phases=2 Linecode=1P_OH_AL_2/0_Rucina_2

New Line.l(r:p1ulv12245-udt4887lv) Units=km Length=0.0162877 bus1=udt4887lv.1.2 bus2=p1ulv12245.1.2 switch=n enabled=y phases=2 Linecode=1P_OH_AL_2/0_Rucina_2

New Line.l(r:p1ulv12240-udm18542) Units=km Length=0.0118505 bus1=udm18542.1.2 bus2=p1ulv12240.1.2 switch=n enabled=y phases=2 Linecode=1P_OH_AL_2/0_Rucina_2

New Line.l(r:p1ulv12241-udm18542) Units=km Length=0.013951500000000002 bus1=udm18542.1.2 bus2=p1ulv12241.1.2 switch=n enabled=y phases=2 Linecode=1P_OH_AL_2/0_Rucina_2

New Line.l(r:p1ulv12243-udm18542) Units=km Length=0.0158863 bus1=udm18542.1.2 bus2=p1ulv12243.1.2 switch=n enabled=y phases=2 Linecode=1P_OH_AL_2/0_Rucina_2

New Line.l(r:udm18542-udt4887lv) Units=km Length=0.0107886 bus1=udt4887lv.1.2 bus2=udm18542.1.2 switch=n enabled=y phases=2 Linecode=1P_OH_AL_2/0_Rucina_2

New Line.l(r:p1ulv10691-udt4888lv) Units=km Length=0.0146304 bus1=udt4888lv.1.2 bus2=p1ulv10691.1.2 switch=n enabled=y phases=2 Linecode=1P_UG_AL_1/0_Brenau_2

New Line.l(r:p1ulv10702-udt4888lv) Units=km Length=0.0165583 bus1=udt4888lv.1.2 bus2=p1ulv10702.1.2 switch=n enabled=y phases=2 Linecode=1P_UG_AL_1/0_Brenau_2

New Line.l(r:p1ulv10693-udm18550) Units=km Length=0.008901440000000002 bus1=udm18550.1.2 bus2=p1ulv10693.1.2 switch=n enabled=y phases=2 Linecode=1P_UG_AL_1/0_Brenau_2

New Line.l(r:p1ulv10701-udm18550) Units=km Length=0.0179088 bus1=udm18550.1.2 bus2=p1ulv10701.1.2 switch=n enabled=y phases=2 Linecode=1P_UG_AL_1/0_Brenau_2

New Line.l(r:udm18550-udt4888lv) Units=km Length=0.00840948 bus1=udt4888lv.1.2 bus2=udm18550.1.2 switch=n enabled=y phases=2 Linecode=1P_UG_AL_1/0_Brenau_2

New Line.l(r:p1ulv10694-udm18551) Units=km Length=0.0125848 bus1=udm18551.1.2 bus2=p1ulv10694.1.2 switch=n enabled=y phases=2 Linecode=1P_UG_AL_1/0_Brenau_2

New Line.l(r:p1ulv10690-udm18548) Units=km Length=0.0139317 bus1=udm18548.1.2 bus2=p1ulv10690.1.2 switch=n enabled=y phases=2 Linecode=1P_UG_AL_1/0_Brenau_2

New Line.l(r:p1ulv10689-udm18547) Units=km Length=0.013428600000000002 bus1=udm18547.1.2 bus2=p1ulv10689.1.2 switch=n enabled=y phases=2 Linecode=1P_UG_AL_1/0_Brenau_2

New Line.l(r:udm18547-udm18548) Units=km Length=0.00817335 bus1=udm18548.1.2 bus2=udm18547.1.2 switch=n enabled=y phases=2 Linecode=1P_UG_AL_1/0_Brenau_2

New Line.l(r:udm18548-udm18551) Units=km Length=0.00818747 bus1=udm18551.1.2 bus2=udm18548.1.2 switch=n enabled=y phases=2 Linecode=1P_UG_AL_1/0_Brenau_2

New Line.l(r:udm18551-udt4888lv) Units=km Length=0.008180810000000002 bus1=udt4888lv.1.2 bus2=udm18551.1.2 switch=n enabled=y phases=2 Linecode=1P_UG_AL_4/0_Sweetbriar_2

New Line.l(r:p1ulv10697-udm18554) Units=km Length=0.00927752 bus1=udm18554.1.2 bus2=p1ulv10697.1.2 switch=n enabled=y phases=2 Linecode=1P_UG_AL_1/0_Brenau_2

New Line.l(r:p1ulv10698-udm18554) Units=km Length=0.0114991 bus1=udm18554.1.2 bus2=p1ulv10698.1.2 switch=n enabled=y phases=2 Linecode=1P_UG_AL_1/0_Brenau_2

New Line.l(r:udm18554-udt4889lv) Units=km Length=0.0072866 bus1=udt4889lv.1.2 bus2=udm18554.1.2 switch=n enabled=y phases=2 Linecode=1P_UG_AL_1/0_Brenau_2

New Line.l(r:p1ulv10699-udm18556) Units=km Length=0.0156033 bus1=udm18556.1.2 bus2=p1ulv10699.1.2 switch=n enabled=y phases=2 Linecode=1P_UG_AL_1/0_Brenau_2

New Line.l(r:udm18556-udt4889lv) Units=km Length=0.00729431 bus1=udt4889lv.1.2 bus2=udm18556.1.2 switch=n enabled=y phases=2 Linecode=1P_UG_AL_1/0_Brenau_2

New Line.l(r:p1ulv10700-udm18557) Units=km Length=0.0194529 bus1=udm18557.1.2 bus2=p1ulv10700.1.2 switch=n enabled=y phases=2 Linecode=1P_UG_AL_1/0_Brenau_2

New Line.l(r:udm18557-udt4890lv) Units=km Length=0.0589509 bus1=udt4890lv.1.2 bus2=udm18557.1.2 switch=n enabled=y phases=2 Linecode=1P_UG_AL_1/0_Brenau_2

New Line.l(r:p1ulv14324-udm18559) Units=km Length=0.0147112 bus1=udm18559.1.2 bus2=p1ulv14324.1.2 switch=n enabled=y phases=2 Linecode=1P_UG_AL_1/0_Brenau_2

New Line.l(r:p1ulv14323-udm18558) Units=km Length=0.0159931 bus1=udm18558.1.2 bus2=p1ulv14323.1.2 switch=n enabled=y phases=2 Linecode=1P_UG_AL_1/0_Brenau_2

New Line.l(r:udm18558-udm18559) Units=km Length=0.0112223 bus1=udm18559.1.2 bus2=udm18558.1.2 switch=n enabled=y phases=2 Linecode=1P_UG_AL_1/0_Brenau_2

New Line.l(r:udm18559-udt4890lv) Units=km Length=0.0190432 bus1=udt4890lv.1.2 bus2=udm18559.1.2 switch=n enabled=y phases=2 Linecode=1P_UG_AL_1/0_Brenau_2

New Line.l(r:p1ulv10713-udt4891lv) Units=km Length=0.0196789 bus1=udt4891lv.1.2 bus2=p1ulv10713.1.2 switch=n enabled=y phases=2 Linecode=1P_UG_AL_1/0_Brenau_2

New Line.l(r:p1ulv10714-udt4891lv) Units=km Length=0.0163346 bus1=udt4891lv.1.2 bus2=p1ulv10714.1.2 switch=n enabled=y phases=2 Linecode=1P_UG_AL_1/0_Brenau_2

New Line.l(r:p1ulv10716-udt4891lv) Units=km Length=0.0192772 bus1=udt4891lv.1.2 bus2=p1ulv10716.1.2 switch=n enabled=y phases=2 Linecode=1P_UG_AL_1/0_Brenau_2

New Line.l(r:p1ulv10703-udm18560) Units=km Length=0.0227353 bus1=udm18560.1.2 bus2=p1ulv10703.1.2 switch=n enabled=y phases=2 Linecode=1P_UG_AL_1/0_Brenau_2

New Line.l(r:p1ulv10704-udm18561) Units=km Length=0.0161352 bus1=udm18561.1.2 bus2=p1ulv10704.1.2 switch=n enabled=y phases=2 Linecode=1P_UG_AL_1/0_Brenau_2

New Line.l(r:p1ulv10705-udm18561) Units=km Length=0.0134223 bus1=udm18561.1.2 bus2=p1ulv10705.1.2 switch=n enabled=y phases=2 Linecode=1P_UG_AL_1/0_Brenau_2

New Line.l(r:p1ulv10707-udm18563) Units=km Length=0.0155449 bus1=udm18563.1.2 bus2=p1ulv10707.1.2 switch=n enabled=y phases=2 Linecode=1P_UG_AL_1/0_Brenau_2

New Line.l(r:udm18561-udm18563) Units=km Length=0.00766672 bus1=udm18561.1.2 bus2=udm18563.1.2 switch=n enabled=y phases=2 Linecode=1P_UG_AL_1/0_Brenau_2

New Line.l(r:udm18560-udm18561) Units=km Length=0.006931950000000001 bus1=udm18560.1.2 bus2=udm18561.1.2 switch=n enabled=y phases=2 Linecode=1P_UG_AL_4/0_Sweetbriar_2

New Line.l(r:udm18560-udt4891lv) Units=km Length=0.006223060000000001 bus1=udt4891lv.1.2 bus2=udm18560.1.2 switch=n enabled=y phases=2 Linecode=1P_UG_AL_4/0_Sweetbriar_2

New Line.l(r:p1ulv10717-udm18568) Units=km Length=0.0237548 bus1=udm18568.1.2 bus2=p1ulv10717.1.2 switch=n enabled=y phases=2 Linecode=1P_UG_AL_1/0_Brenau_2

New Line.l(r:p1ulv10708-udm18564) Units=km Length=0.0232634 bus1=udm18564.1.2 bus2=p1ulv10708.1.2 switch=n enabled=y phases=2 Linecode=1P_UG_AL_1/0_Brenau_2

New Line.l(r:udm18564-udm18568) Units=km Length=0.00662657 bus1=udm18568.1.2 bus2=udm18564.1.2 switch=n enabled=y phases=2 Linecode=1P_UG_AL_1/0_Brenau_2

New Line.l(r:udm18568-udt4891lv) Units=km Length=0.00773606 bus1=udt4891lv.1.2 bus2=udm18568.1.2 switch=n enabled=y phases=2 Linecode=1P_UG_AL_1/0_Brenau_2

New Line.l(r:p1ulv10710-udt4892lv) Units=km Length=0.0208178 bus1=udt4892lv.1.2 bus2=p1ulv10710.1.2 switch=n enabled=y phases=2 Linecode=1P_UG_AL_1/0_Brenau_2

New Line.l(r:p1ulv10709-udm18569) Units=km Length=0.022172500000000005 bus1=udm18569.1.2 bus2=p1ulv10709.1.2 switch=n enabled=y phases=2 Linecode=1P_UG_AL_1/0_Brenau_2

New Line.l(r:udm18569-udt4892lv) Units=km Length=0.008370150000000002 bus1=udt4892lv.1.2 bus2=udm18569.1.2 switch=n enabled=y phases=2 Linecode=1P_UG_AL_1/0_Brenau_2

New Line.l(r:p1ulv10711-udm18571) Units=km Length=0.0198198 bus1=udm18571.1.2 bus2=p1ulv10711.1.2 switch=n enabled=y phases=2 Linecode=1P_UG_AL_1/0_Brenau_2

New Line.l(r:udm18571-udt4892lv) Units=km Length=0.008370150000000002 bus1=udt4892lv.1.2 bus2=udm18571.1.2 switch=n enabled=y phases=2 Linecode=1P_UG_AL_1/0_Brenau_2

New Line.l(r:p1ulv10712-udt4893lv) Units=km Length=0.017022 bus1=udt4893lv.1.2 bus2=p1ulv10712.1.2 switch=n enabled=y phases=2 Linecode=1P_UG_AL_1/0_Brenau_2

New Line.l(r:p1ulv11490-udt5274lv) Units=km Length=0.018642 bus1=udt5274lv.1.2 bus2=p1ulv11490.1.2 switch=n enabled=y phases=2 Linecode=1P_OH_AL_2/0_Rucina_2

New Line.l(r:p1ulv18190-udm19699) Units=km Length=0.0185388 bus1=udm19699.1.2 bus2=p1ulv18190.1.2 switch=n enabled=y phases=2 Linecode=1P_OH_AL_2/0_Rucina_2

New Line.l(r:p1ulv25820-udm19699) Units=km Length=0.0194349 bus1=udm19699.1.2 bus2=p1ulv25820.1.2 switch=n enabled=y phases=2 Linecode=1P_OH_AL_2/0_Rucina_2

New Line.l(r:udm19699-udt5274lv) Units=km Length=0.0173036 bus1=udt5274lv.1.2 bus2=udm19699.1.2 switch=n enabled=y phases=2 Linecode=1P_OH_AL_2/0_Rucina_2

New Line.l(r:p1ulv32667-udm19701) Units=km Length=0.0238541 bus1=udm19701.1.2 bus2=p1ulv32667.1.2 switch=n enabled=y phases=2 Linecode=1P_OH_AL_2/0_Rucina_2

New Line.l(r:udm19701-udt5274lv) Units=km Length=0.0172905 bus1=udt5274lv.1.2 bus2=udm19701.1.2 switch=n enabled=y phases=2 Linecode=1P_OH_AL_2/0_Rucina_2

New Line.l(r:p1ulv22984-udt5276lv) Units=km Length=0.0139535 bus1=udt5276lv.1.2 bus2=p1ulv22984.1.2 switch=n enabled=y phases=2 Linecode=1P_UG_AL_1/0_Brenau_2

New Line.l(r:p1ulv22985-udt5276lv) Units=km Length=0.015144000000000001 bus1=udt5276lv.1.2 bus2=p1ulv22985.1.2 switch=n enabled=y phases=2 Linecode=1P_UG_AL_1/0_Brenau_2

New Line.l(r:p1ulv22981-udm19705) Units=km Length=0.013033200000000002 bus1=udm19705.1.2 bus2=p1ulv22981.1.2 switch=n enabled=y phases=2 Linecode=1P_UG_AL_1/0_Brenau_2

New Line.l(r:p1ulv22983-udm19705) Units=km Length=0.0138495 bus1=udm19705.1.2 bus2=p1ulv22983.1.2 switch=n enabled=y phases=2 Linecode=1P_UG_AL_1/0_Brenau_2

New Line.l(r:p1ulv22980-udm19704) Units=km Length=0.0130755 bus1=udm19704.1.2 bus2=p1ulv22980.1.2 switch=n enabled=y phases=2 Linecode=1P_UG_AL_1/0_Brenau_2

New Line.l(r:p1ulv11492-udm19703) Units=km Length=0.00544772 bus1=udm19703.1.2 bus2=p1ulv11492.1.2 switch=n enabled=y phases=2 Linecode=1P_UG_AL_1/0_Brenau_2

New Line.l(r:p1ulv23003-udm19703) Units=km Length=0.0140669 bus1=udm19703.1.2 bus2=p1ulv23003.1.2 switch=n enabled=y phases=2 Linecode=1P_UG_AL_1/0_Brenau_2

New Line.l(r:p1ulv23004-udm19703) Units=km Length=0.0142912 bus1=udm19703.1.2 bus2=p1ulv23004.1.2 switch=n enabled=y phases=2 Linecode=1P_UG_AL_1/0_Brenau_2

New Line.l(r:p1ulv23002-udm19712) Units=km Length=0.013481 bus1=udm19712.1.2 bus2=p1ulv23002.1.2 switch=n enabled=y phases=2 Linecode=1P_UG_AL_1/0_Brenau_2

New Line.l(r:udm19703-udm19712) Units=km Length=0.00884247 bus1=udm19703.1.2 bus2=udm19712.1.2 switch=n enabled=y phases=2 Linecode=1P_UG_AL_1/0_Brenau_2

New Line.l(r:udm19703-udm19704) Units=km Length=0.024195 bus1=udm19704.1.2 bus2=udm19703.1.2 switch=n enabled=y phases=2 Linecode=1P_UG_AL_1/0_Brenau_2

New Line.l(r:udm19704-udm19705) Units=km Length=0.006325080000000001 bus1=udm19705.1.2 bus2=udm19704.1.2 switch=n enabled=y phases=2 Linecode=1P_UG_AL_2/0_Converse_2

New Line.l(r:udm19705-udt5276lv) Units=km Length=0.00911803 bus1=udt5276lv.1.2 bus2=udm19705.1.2 switch=n enabled=y phases=2 Linecode=1P_UG_AL_4/0_Sweetbriar_2

New Line.l(r:p1ulv22986-udm19709) Units=km Length=0.01375 bus1=udm19709.1.2 bus2=p1ulv22986.1.2 switch=n enabled=y phases=2 Linecode=1P_UG_AL_1/0_Brenau_2

New Line.l(r:p1ulv22987-udm19710) Units=km Length=0.0140828 bus1=udm19710.1.2 bus2=p1ulv22987.1.2 switch=n enabled=y phases=2 Linecode=1P_UG_AL_1/0_Brenau_2

New Line.l(r:p1ulv22997-udm19710) Units=km Length=0.0150286 bus1=udm19710.1.2 bus2=p1ulv22997.1.2 switch=n enabled=y phases=2 Linecode=1P_UG_AL_1/0_Brenau_2

New Line.l(r:udm19709-udm19710) Units=km Length=0.00912602 bus1=udm19709.1.2 bus2=udm19710.1.2 switch=n enabled=y phases=2 Linecode=1P_UG_AL_1/0_Brenau_2

New Line.l(r:udm19709-udt5276lv) Units=km Length=0.018252000000000004 bus1=udt5276lv.1.2 bus2=udm19709.1.2 switch=n enabled=y phases=2 Linecode=1P_UG_AL_1/0_Brenau_2

New Line.l(r:p1ulv11495-udt5279lv) Units=km Length=0.0131505 bus1=udt5279lv.1.2 bus2=p1ulv11495.1.2 switch=n enabled=y phases=2 Linecode=1P_OH_AL_2/0_Rucina_2

New Line.l(r:p1ulv13688-udt5279lv) Units=km Length=0.0122467 bus1=udt5279lv.1.2 bus2=p1ulv13688.1.2 switch=n enabled=y phases=2 Linecode=1P_OH_AL_2/0_Rucina_2

New Line.l(r:p1ulv18808-udm19726) Units=km Length=0.0133162 bus1=udm19726.1.2 bus2=p1ulv18808.1.2 switch=n enabled=y phases=2 Linecode=1P_OH_AL_2/0_Rucina_2

New Line.l(r:p1ulv25655-udm19726) Units=km Length=0.0150108 bus1=udm19726.1.2 bus2=p1ulv25655.1.2 switch=n enabled=y phases=2 Linecode=1P_OH_AL_2/0_Rucina_2

New Line.l(r:p1ulv17288-udm19725) Units=km Length=0.013201 bus1=udm19725.1.2 bus2=p1ulv17288.1.2 switch=n enabled=y phases=2 Linecode=1P_OH_AL_2/0_Rucina_2

New Line.l(r:p1ulv32398-udm19730) Units=km Length=0.0119528 bus1=udm19730.1.2 bus2=p1ulv32398.1.2 switch=n enabled=y phases=2 Linecode=1P_OH_AL_2/0_Rucina_2

New Line.l(r:udm19725-udm19730) Units=km Length=0.0185605 bus1=udm19725.1.2 bus2=udm19730.1.2 switch=n enabled=y phases=2 Linecode=1P_OH_AL_2/0_Rucina_2

New Line.l(r:udm19725-udm19726) Units=km Length=0.0198656 bus1=udm19726.1.2 bus2=udm19725.1.2 switch=n enabled=y phases=2 Linecode=1P_OH_AL_2/0_Rucina_2

New Line.l(r:udm19726-udt5279lv) Units=km Length=0.019872 bus1=udt5279lv.1.2 bus2=udm19726.1.2 switch=n enabled=y phases=2 Linecode=1P_OH_AL_2/0_Rucina_2

New Line.l(r:p1ulv23758-udm19727) Units=km Length=0.0114909 bus1=udm19727.1.2 bus2=p1ulv23758.1.2 switch=n enabled=y phases=2 Linecode=1P_OH_AL_2/0_Rucina_2

New Line.l(r:p1ulv25561-udm19728) Units=km Length=0.0131037 bus1=udm19728.1.2 bus2=p1ulv25561.1.2 switch=n enabled=y phases=2 Linecode=1P_OH_AL_2/0_Rucina_2

New Line.l(r:p1ulv15797-udm19724) Units=km Length=0.0103234 bus1=udm19724.1.2 bus2=p1ulv15797.1.2 switch=n enabled=y phases=2 Linecode=1P_OH_AL_2/0_Rucina_2

New Line.l(r:udm19724-udm19728) Units=km Length=0.0132712 bus1=udm19728.1.2 bus2=udm19724.1.2 switch=n enabled=y phases=2 Linecode=1P_OH_AL_2/0_Rucina_2

New Line.l(r:udm19727-udm19728) Units=km Length=0.011405900000000002 bus1=udm19727.1.2 bus2=udm19728.1.2 switch=n enabled=y phases=2 Linecode=1P_OH_AL_2/0_Rucina_2

New Line.l(r:udm19727-udt5279lv) Units=km Length=0.0122848 bus1=udt5279lv.1.2 bus2=udm19727.1.2 switch=n enabled=y phases=2 Linecode=1P_OH_AL_2/0_Rucina_2

New Line.l(r:p1ulv12062-udt5441lv) Units=km Length=0.014984900000000002 bus1=udt5441lv.1.2 bus2=p1ulv12062.1.2 switch=n enabled=y phases=2 Linecode=1P_UG_AL_1/0_Brenau_2

New Line.l(r:p1ulv12059-udm20476) Units=km Length=0.0087395 bus1=udm20476.1.2 bus2=p1ulv12059.1.2 switch=n enabled=y phases=2 Linecode=1P_UG_AL_1/0_Brenau_2

New Line.l(r:p1ulv12060-udm20477) Units=km Length=0.015300800000000002 bus1=udm20477.1.2 bus2=p1ulv12060.1.2 switch=n enabled=y phases=2 Linecode=1P_UG_AL_1/0_Brenau_2

New Line.l(r:p1ulv12058-udm20475) Units=km Length=0.0123808 bus1=udm20475.1.2 bus2=p1ulv12058.1.2 switch=n enabled=y phases=2 Linecode=1P_UG_AL_1/0_Brenau_2

New Line.l(r:p1ulv12061-udm20475) Units=km Length=0.013726500000000003 bus1=udm20475.1.2 bus2=p1ulv12061.1.2 switch=n enabled=y phases=2 Linecode=1P_UG_AL_1/0_Brenau_2

New Line.l(r:udm20475-udm20477) Units=km Length=0.00867274 bus1=udm20477.1.2 bus2=udm20475.1.2 switch=n enabled=y phases=2 Linecode=1P_UG_AL_1/0_Brenau_2

New Line.l(r:udm20476-udm20477) Units=km Length=0.0139336 bus1=udm20476.1.2 bus2=udm20477.1.2 switch=n enabled=y phases=2 Linecode=1P_UG_AL_2/0_Converse_2

New Line.l(r:udm20476-udt5441lv) Units=km Length=0.0133872 bus1=udt5441lv.1.2 bus2=udm20476.1.2 switch=n enabled=y phases=2 Linecode=1P_UG_AL_4/0_Sweetbriar_2

New Line.l(r:p1ulv12063-udm20480) Units=km Length=0.0143272 bus1=udm20480.1.2 bus2=p1ulv12063.1.2 switch=n enabled=y phases=2 Linecode=1P_UG_AL_1/0_Brenau_2

New Line.l(r:p1ulv12064-udm20480) Units=km Length=0.012614500000000002 bus1=udm20480.1.2 bus2=p1ulv12064.1.2 switch=n enabled=y phases=2 Linecode=1P_UG_AL_1/0_Brenau_2

New Line.l(r:p1ulv12053-udm20473) Units=km Length=0.013863400000000001 bus1=udm20473.1.2 bus2=p1ulv12053.1.2 switch=n enabled=y phases=2 Linecode=1P_UG_AL_1/0_Brenau_2

New Line.l(r:p1ulv12054-udm20473) Units=km Length=0.0101514 bus1=udm20473.1.2 bus2=p1ulv12054.1.2 switch=n enabled=y phases=2 Linecode=1P_UG_AL_1/0_Brenau_2

New Line.l(r:udm20473-udm20480) Units=km Length=0.00868938 bus1=udm20480.1.2 bus2=udm20473.1.2 switch=n enabled=y phases=2 Linecode=1P_UG_AL_1/0_Brenau_2

New Line.l(r:udm20480-udt5441lv) Units=km Length=0.00868043 bus1=udt5441lv.1.2 bus2=udm20480.1.2 switch=n enabled=y phases=2 Linecode=1P_UG_AL_2/0_Converse_2

New Line.l(r:p1ulv12057-udt5442lv) Units=km Length=0.01194 bus1=udt5442lv.1.2 bus2=p1ulv12057.1.2 switch=n enabled=y phases=2 Linecode=1P_UG_AL_1/0_Brenau_2

New Line.l(r:p1ulv12055-udm20482) Units=km Length=0.0118224 bus1=udm20482.1.2 bus2=p1ulv12055.1.2 switch=n enabled=y phases=2 Linecode=1P_UG_AL_1/0_Brenau_2

New Line.l(r:udm20482-udt5442lv) Units=km Length=0.00867274 bus1=udt5442lv.1.2 bus2=udm20482.1.2 switch=n enabled=y phases=2 Linecode=1P_UG_AL_1/0_Brenau_2

New Line.l(r:p1ulv12065-udm20484) Units=km Length=0.0085896 bus1=udm20484.1.2 bus2=p1ulv12065.1.2 switch=n enabled=y phases=2 Linecode=1P_OH_AL_2/0_Rucina_2

New Line.l(r:p1ulv12151-udm20484) Units=km Length=0.012092600000000002 bus1=udm20484.1.2 bus2=p1ulv12151.1.2 switch=n enabled=y phases=2 Linecode=1P_OH_AL_2/0_Rucina_2

New Line.l(r:udm20484-udt5443lv) Units=km Length=0.0188277 bus1=udt5443lv.1.2 bus2=udm20484.1.2 switch=n enabled=y phases=2 Linecode=1P_OH_AL_2/0_Rucina_2

New Line.l(r:p1ulv12156-udm20486) Units=km Length=0.0236165 bus1=udm20486.1.2 bus2=p1ulv12156.1.2 switch=n enabled=y phases=2 Linecode=1P_OH_AL_2/0_Rucina_2

New Line.l(r:udm20486-udt5443lv) Units=km Length=0.0173803 bus1=udt5443lv.1.2 bus2=udm20486.1.2 switch=n enabled=y phases=2 Linecode=1P_OH_AL_2/0_Rucina_2

New Line.l(r:p1ulv12070-udt5444lv) Units=km Length=0.0145213 bus1=udt5444lv.1.2 bus2=p1ulv12070.1.2 switch=n enabled=y phases=2 Linecode=1P_UG_AL_1/0_Brenau_2

New Line.l(r:p1ulv12066-udm20487) Units=km Length=0.014568600000000001 bus1=udm20487.1.2 bus2=p1ulv12066.1.2 switch=n enabled=y phases=2 Linecode=1P_UG_AL_1/0_Brenau_2

New Line.l(r:p1ulv12067-udm20488) Units=km Length=0.0146801 bus1=udm20488.1.2 bus2=p1ulv12067.1.2 switch=n enabled=y phases=2 Linecode=1P_UG_AL_1/0_Brenau_2

New Line.l(r:udm20487-udm20488) Units=km Length=0.00962416 bus1=udm20487.1.2 bus2=udm20488.1.2 switch=n enabled=y phases=2 Linecode=1P_UG_AL_1/0_Brenau_2

New Line.l(r:udm20487-udt5444lv) Units=km Length=0.00962416 bus1=udt5444lv.1.2 bus2=udm20487.1.2 switch=n enabled=y phases=2 Linecode=1P_UG_AL_4/0_Sweetbriar_2

New Line.l(r:p1ulv12071-udm20490) Units=km Length=0.0141354 bus1=udm20490.1.2 bus2=p1ulv12071.1.2 switch=n enabled=y phases=2 Linecode=1P_UG_AL_1/0_Brenau_2

New Line.l(r:udm20490-udt5444lv) Units=km Length=0.00962416 bus1=udt5444lv.1.2 bus2=udm20490.1.2 switch=n enabled=y phases=2 Linecode=1P_UG_AL_1/0_Brenau_2

New Line.l(r:p1ulv12074-udt5445lv) Units=km Length=0.0172579 bus1=udt5445lv.1.2 bus2=p1ulv12074.1.2 switch=n enabled=y phases=2 Linecode=1P_UG_AL_1/0_Brenau_2

New Line.l(r:p1ulv12075-udt5445lv) Units=km Length=0.014835200000000002 bus1=udt5445lv.1.2 bus2=p1ulv12075.1.2 switch=n enabled=y phases=2 Linecode=1P_UG_AL_1/0_Brenau_2

New Line.l(r:p1ulv12072-udm20491) Units=km Length=0.022682100000000004 bus1=udm20491.1.2 bus2=p1ulv12072.1.2 switch=n enabled=y phases=2 Linecode=1P_UG_AL_1/0_Brenau_2

New Line.l(r:p1ulv12073-udm20491) Units=km Length=0.0198914 bus1=udm20491.1.2 bus2=p1ulv12073.1.2 switch=n enabled=y phases=2 Linecode=1P_UG_AL_1/0_Brenau_2

New Line.l(r:udm20491-udt5445lv) Units=km Length=0.00962416 bus1=udt5445lv.1.2 bus2=udm20491.1.2 switch=n enabled=y phases=2 Linecode=1P_UG_AL_1/0_Brenau_2

New Line.l(r:p1ulv12076-udm20495) Units=km Length=0.0111631 bus1=udm20495.1.2 bus2=p1ulv12076.1.2 switch=n enabled=y phases=2 Linecode=1P_UG_AL_1/0_Brenau_2

New Line.l(r:p1ulv12096-udm20495) Units=km Length=0.0155923 bus1=udm20495.1.2 bus2=p1ulv12096.1.2 switch=n enabled=y phases=2 Linecode=1P_UG_AL_1/0_Brenau_2

New Line.l(r:udm20495-udt5445lv) Units=km Length=0.00962416 bus1=udt5445lv.1.2 bus2=udm20495.1.2 switch=n enabled=y phases=2 Linecode=1P_UG_AL_1/0_Brenau_2

New Line.l(r:p1ulv12079-udt5446lv) Units=km Length=0.031240000000000004 bus1=udt5446lv.1.2 bus2=p1ulv12079.1.2 switch=n enabled=y phases=2 Linecode=1P_UG_AL_1/0_Brenau_2

New Line.l(r:p1ulv12084-udt5446lv) Units=km Length=0.0208184 bus1=udt5446lv.1.2 bus2=p1ulv12084.1.2 switch=n enabled=y phases=2 Linecode=1P_UG_AL_1/0_Brenau_2

New Line.l(r:p1ulv12085-udt5446lv) Units=km Length=0.0199412 bus1=udt5446lv.1.2 bus2=p1ulv12085.1.2 switch=n enabled=y phases=2 Linecode=1P_UG_AL_1/0_Brenau_2

New Line.l(r:p1ulv12087-udt5446lv) Units=km Length=0.0203334 bus1=udt5446lv.1.2 bus2=p1ulv12087.1.2 switch=n enabled=y phases=2 Linecode=1P_UG_AL_1/0_Brenau_2

New Line.l(r:p1ulv12088-udt5446lv) Units=km Length=0.022168600000000004 bus1=udt5446lv.1.2 bus2=p1ulv12088.1.2 switch=n enabled=y phases=2 Linecode=1P_UG_AL_1/0_Brenau_2

New Line.l(r:p1ulv12077-udm20497) Units=km Length=0.030545 bus1=udm20497.1.2 bus2=p1ulv12077.1.2 switch=n enabled=y phases=2 Linecode=1P_UG_AL_1/0_Brenau_2

New Line.l(r:p1ulv12080-udm20499) Units=km Length=0.029395800000000003 bus1=udm20499.1.2 bus2=p1ulv12080.1.2 switch=n enabled=y phases=2 Linecode=1P_UG_AL_1/0_Brenau_2

New Line.l(r:p1ulv12081-udm20499) Units=km Length=0.0290692 bus1=udm20499.1.2 bus2=p1ulv12081.1.2 switch=n enabled=y phases=2 Linecode=1P_UG_AL_1/0_Brenau_2

New Line.l(r:p1ulv12082-udm20501) Units=km Length=0.0279635 bus1=udm20501.1.2 bus2=p1ulv12082.1.2 switch=n enabled=y phases=2 Linecode=1P_UG_AL_1/0_Brenau_2

New Line.l(r:udm20499-udm20501) Units=km Length=0.00961834 bus1=udm20499.1.2 bus2=udm20501.1.2 switch=n enabled=y phases=2 Linecode=1P_UG_AL_1/0_Brenau_2

New Line.l(r:udm20497-udm20499) Units=km Length=0.00962416 bus1=udm20497.1.2 bus2=udm20499.1.2 switch=n enabled=y phases=2 Linecode=1P_UG_AL_2/0_Converse_2

New Line.l(r:udm20497-udt5446lv) Units=km Length=0.00962416 bus1=udt5446lv.1.2 bus2=udm20497.1.2 switch=n enabled=y phases=2 Linecode=1P_UG_AL_4/0_Sweetbriar_2

New Line.l(r:p1ulv12103-udt5447lv) Units=km Length=0.0191669 bus1=udt5447lv.1.2 bus2=p1ulv12103.1.2 switch=n enabled=y phases=2 Linecode=1P_UG_AL_1/0_Brenau_2

New Line.l(r:p1ulv12083-udm20506) Units=km Length=0.021153300000000003 bus1=udm20506.1.2 bus2=p1ulv12083.1.2 switch=n enabled=y phases=2 Linecode=1P_UG_AL_1/0_Brenau_2

New Line.l(r:p1ulv12104-udm20506) Units=km Length=0.0209637 bus1=udm20506.1.2 bus2=p1ulv12104.1.2 switch=n enabled=y phases=2 Linecode=1P_UG_AL_1/0_Brenau_2

New Line.l(r:p1ulv12105-udm20506) Units=km Length=0.0240217 bus1=udm20506.1.2 bus2=p1ulv12105.1.2 switch=n enabled=y phases=2 Linecode=1P_UG_AL_1/0_Brenau_2

New Line.l(r:udm20506-udt5447lv) Units=km Length=0.0181105 bus1=udt5447lv.1.2 bus2=udm20506.1.2 switch=n enabled=y phases=2 Linecode=1P_UG_AL_2/0_Converse_2

New Line.l(r:p1ulv12097-udm20507) Units=km Length=0.00559946 bus1=udm20507.1.2 bus2=p1ulv12097.1.2 switch=n enabled=y phases=2 Linecode=1P_UG_AL_1/0_Brenau_2

New Line.l(r:p1ulv12101-udm20511) Units=km Length=0.0121274 bus1=udm20511.1.2 bus2=p1ulv12101.1.2 switch=n enabled=y phases=2 Linecode=1P_UG_AL_1/0_Brenau_2

New Line.l(r:p1ulv12098-udm20508) Units=km Length=0.00956906 bus1=udm20508.1.2 bus2=p1ulv12098.1.2 switch=n enabled=y phases=2 Linecode=1P_UG_AL_1/0_Brenau_2

New Line.l(r:p1ulv12100-udm20508) Units=km Length=0.0127345 bus1=udm20508.1.2 bus2=p1ulv12100.1.2 switch=n enabled=y phases=2 Linecode=1P_UG_AL_1/0_Brenau_2

New Line.l(r:p1ulv12099-udm20509) Units=km Length=0.0116548 bus1=udm20509.1.2 bus2=p1ulv12099.1.2 switch=n enabled=y phases=2 Linecode=1P_UG_AL_1/0_Brenau_2

New Line.l(r:udm20508-udm20509) Units=km Length=0.007556320000000001 bus1=udm20508.1.2 bus2=udm20509.1.2 switch=n enabled=y phases=2 Linecode=1P_UG_AL_1/0_Brenau_2

New Line.l(r:udm20508-udm20511) Units=km Length=0.00754777 bus1=udm20511.1.2 bus2=udm20508.1.2 switch=n enabled=y phases=2 Linecode=1P_UG_AL_4/0_Sweetbriar_2

New Line.l(r:udm20507-udm20511) Units=km Length=0.00695467 bus1=udm20507.1.2 bus2=udm20511.1.2 switch=n enabled=y phases=2 Linecode=1P_UG_AL_4/0_Sweetbriar_2

New Line.l(r:udm20507-udt5447lv) Units=km Length=0.00694161 bus1=udt5447lv.1.2 bus2=udm20507.1.2 switch=n enabled=y phases=2 Linecode=1P_UG_AL_4/0_Sweetbriar_2

New Line.l(r:p1ulv12089-udt5448lv) Units=km Length=0.0170326 bus1=udt5448lv.1.2 bus2=p1ulv12089.1.2 switch=n enabled=y phases=2 Linecode=1P_UG_AL_1/0_Brenau_2

...